MATDSS_ver0.96/DSS_Files/Other DSS Files/Old Files/IEEE13Nodeckt_VLN_Node.Txt

LINE-GROUND and LINE-LINE VOLTAGES BY BUS & NODE

Bus       Node    VLN (kV)   Angle      pu     Base kV    Node-Node   VLL (kV)  Angle      pu

SOURCEBUS 1       66.402 /_   30.0    1.0001   115.000        1-2     115.01 /_   60.0    1.0001
   -      2       66.402 /_  -90.0    1.0001   115.000        2-3     115.01 /_  -60.0    1.0001
   -      3       66.402 /_  150.0    1.0001   115.000        3-1     115.01 /_ -180.0    1.0001
650 ..... 1        2.402 /_    0.0    1.0001     4.160        1-2     4.1604 /_   30.0    1.0001
   -      2        2.402 /_ -120.0    1.0001     4.160        2-3     4.1604 /_  -90.0    1.0001
   -      3        2.402 /_  120.0    1.0001     4.160        3-1     4.1604 /_  150.0    1.0001
RG60 .... 1        2.402 /_    0.0    1.0001     4.160        1-2     4.1604 /_   30.0    1.0001
   -      2        2.402 /_ -120.0    1.0001     4.160        2-3     4.1604 /_  -90.0    1.0001
   -      3        2.402 /_  120.0    1.0001     4.160        3-1     4.1604 /_  150.0    1.0001
633 ..... 1        2.402 /_    0.0    1.0001     4.160        1-2     4.1604 /_   30.0    1.0001
   -      2        2.402 /_ -120.0    1.0001     4.160        2-3     4.1604 /_  -90.0    1.0001
   -      3        2.402 /_  120.0    1.0001     4.160        3-1     4.1604 /_  150.0    1.0001
634 ..... 1      0.27716 /_    0.0    1.0001     0.480        1-2    0.48005 /_   30.0    1.0001
   -      2      0.27716 /_ -120.0    1.0001     0.480        2-3    0.48005 /_  -90.0    1.0001
   -      3      0.27716 /_  120.0    1.0001     0.480        3-1    0.48005 /_  150.0    1.0001
671 ..... 1        2.402 /_    0.0    1.0001     4.160        1-2     4.1604 /_   30.0    1.0001
   -      2        2.402 /_ -120.0    1.0001     4.160        2-3     4.1604 /_  -90.0    1.0001
   -      3        2.402 /_  120.0    1.0001     4.160        3-1     4.1604 /_  150.0    1.0001
645 ..... 2        2.402 /_ -120.0    1.0001     4.160        2-3     4.1604 /_  -90.0    1.0001
   -      3        2.402 /_  120.0    1.0001     4.160
646 ..... 2        2.402 /_ -120.0    1.0001     4.160        2-3     4.1604 /_  -90.0    1.0001
   -      3        2.402 /_  120.0    1.0001     4.160
692 ..... 1        2.402 /_    0.0    1.0001     4.160        1-2     4.1604 /_   30.0    1.0001
   -      2        2.402 /_ -120.0    1.0001     4.160        2-3     4.1604 /_  -90.0    1.0001
   -      3        2.402 /_  120.0    1.0001     4.160        3-1     4.1604 /_  150.0    1.0001
675 ..... 1        2.402 /_    0.0    1.0001     4.160        1-2     4.1604 /_   30.0    1.0001
   -      2        2.402 /_ -120.0    1.0001     4.160        2-3     4.1604 /_  -90.0    1.0001
   -      3        2.402 /_  120.0    1.0001     4.160        3-1     4.1604 /_  150.0    1.0001
611 ..... 3        2.402 /_  120.0    1.0001     4.160
652 ..... 1        2.402 /_    0.0    1.0001     4.160
670 ..... 1        2.402 /_    0.0    1.0001     4.160        1-2     4.1604 /_   30.0    1.0001
   -      2        2.402 /_ -120.0    1.0001     4.160        2-3     4.1604 /_  -90.0    1.0001
   -      3        2.402 /_  120.0    1.0001     4.160        3-1     4.1604 /_  150.0    1.0001
632 ..... 1        2.402 /_    0.0    1.0001     4.160        1-2     4.1604 /_   30.0    1.0001
   -      2        2.402 /_ -120.0    1.0001     4.160        2-3     4.1604 /_  -90.0    1.0001
   -      3        2.402 /_  120.0    1.0001     4.160        3-1     4.1604 /_  150.0    1.0001
680 ..... 1        2.402 /_    0.0    1.0001     4.160        1-2     4.1604 /_   30.0    1.0001
   -      2        2.402 /_ -120.0    1.0001     4.160        2-3     4.1604 /_  -90.0    1.0001
   -      3        2.402 /_  120.0    1.0001     4.160        3-1     4.1604 /_  150.0    1.0001
684 ..... 1        2.402 /_    0.0    1.0001     4.160
   -      3        2.402 /_  120.0    1.0001     4.160        3-1     4.1604 /_  150.0    1.0001
